&nlcfiles
astart='/work/n02/n02/lrpedro/cylc-run/u-bo026-n96-t2/share/data/bo026_ens6a.astart',
atmanl='unset',
streqlog='/work/n02/n02/lrpedro/cylc-run/u-bo026-n96-t2/share/data/History_Data/bo026_ens6.stash',
/
&nlstcall
ancil_reftime=1981,12,1,0,0,0,
l_nrun_as_crun=.false.,
lcal360=.true.,
lclimrealyr=.false.,
ltimer=.true.,
model_analysis_mins=0,
model_basis_time=1988,09,01,00,00,00,
num_albcs=0,
run_target_end=0,0,1,0,0,0,
/
&ancilcta
l_amipii_ice_processing=.true.,
l_sstanom=.false.,
nancil_lookupsa=50000,
use_lookup_dates_anc_time_interp=.true.,
/
&temp_fixes
l_eg_damp_height_lid=.true.,
l_fix_arcl_eg_levs=.true.,
l_fix_ccb_cct=.false.,
l_fix_conserv=.true.,
l_fix_conv_diags_var=.false.,
l_fix_conv_precip_evap=.false.,
l_fix_drop_settle=.true.,
l_fix_dyndiag=.false.,
l_fix_ec_gen_hgt=.true.,
l_fix_iau_rim_density=.false.,
l_fix_improve_drydep=.false.,
l_fix_incloud_qcf=.false.,
l_fix_lsp_incs_to_spt=.false.,
l_fix_mcr_frac_ice=.false.,
l_fix_mphys_diags_iter=.true.,
l_fix_nacl_density=.false.,
l_fix_neg_pvol_wat=.false.,
l_fix_pc2_cnv_mix_phase=.false.,
l_fix_rcf_mlsnow_icefreemax=.false.,
l_fix_riming=.false.,
l_fix_rp_shock_amp=.false.,
l_fix_tidy_rainfracs=.false.,
l_fix_ukca_cloud_frac=.false.,
l_fix_ukca_h2dd_x=.false.,
l_fix_ukca_impscav=.false.,
l_fix_ukca_offox_h2o_fac=.false.,
l_fix_zh=.false.,
l_methox_fix=.true.,
l_pc2_homog_turb_q_neg=.true.,
l_rm_hardwire_gas360=.true.,
l_roughnesslength_fix=.false.,
l_stph_rhcrit_unbias=.true.,
/
&jules_temp_fixes
l_dtcanfix=.true.,
l_fix_alb_ice_thick=.false.,
l_fix_albsnow_ts=.false.,
l_fix_ctile_orog=.false.,
l_fix_moruses_roof_rad_coupling=.false.,
l_fix_osa_chloro=.false.,
l_fix_ustar_dust=.false.,
l_fix_wind_snow=.true.,
/
&carbon_options
i_co2_opt=2,
/
&coupling_control
/
&model_domain
l_regular=.true.,
model_type=1,
/
&planet_constants
i_eqt=1,
i_planet=3,
l_fix_solang=.false.,
l_planet_g=.false.,
l_planet_orbit=.false.,
l_set_planet_rotation=.false.,
planet_obs_lat=0.0,
planet_obs_lon=0.0,
sc=1361.0,
/
&run_dust
dust_veg_emiss=1,
horiz_d=2.25,
i_dust=1,
l_dust_div1_lbc=.false.,
l_dust_div2_lbc=.false.,
l_dust_div3_lbc=.false.,
l_dust_div4_lbc=.false.,
l_dust_div5_lbc=.false.,
l_dust_div6_lbc=.false.,
l_fix_size_dist=.false.,
l_twobin_dust=.false.,
pwsdiag_sfc_em=0.0,
sm_corr=0.50,
us_am=1.45,
/
&run_glomap_aeroclim
l_glomap_mode_clim=.false.,
/
&run_ukca
biom_aer_ems_scaling=2.0,
chem_timestep=3600,
dts0=300,
i_ageair_reset_method=1,
i_mode_nzts=15,
i_mode_setup=2,
i_ukca_activation_scheme=1,
i_ukca_chem=14,
i_ukca_conserve_method=2,
i_ukca_dms_flux=1,
i_ukca_hiorder_scheme=0,
i_ukca_nwbins=20,
l_bcoc_bf=.true.,
l_bcoc_bm=.true.,
l_bcoc_ff=.true.,
l_mode_bhn_on=.true.,
l_mode_bln_on=.false.,
l_ukca=.true.,
l_ukca_ageair=.true.,
l_ukca_aie1=.true.,
l_ukca_aie2=.true.,
l_ukca_chem_aero=.true.,
l_ukca_ddep_lev1=.false.,
l_ukca_ddepo3_ocean=.false.,
l_ukca_intdd=.true.,
l_ukca_mode=.true.,
l_ukca_prim_moc=.false.,
l_ukca_primbcoc=.true.,
l_ukca_primss=.true.,
l_ukca_primsu=.true.,
l_ukca_radaer=.true.,
l_ukca_radaer_sustrat=.true.,
l_ukca_scale_biom_aer_ems=.true.,
l_ukca_scale_seadms_ems=.false.,
l_ukca_scale_soa_yield=.true.,
l_ukca_sfix=.false.,
l_ukca_so2ems_expvolc=.false.,
l_ukca_src_in_conservation=.true.,
max_ageair_reset_level=10,
mode_activation_dryr=37.5,
mode_aitsol_cvscav=0.5,
mode_incld_so2_rfrac=0.25,
mode_parfrac=2.5,
soa_yield_scaling=2.0,
ukca_em_dir='',
ukca_em_files='/work/n02/n02/lrpedro/cylc-run/u-bo026-n96-t2/share/data/etc/ancil_ukca/ukca_emiss_BC_biofuel.nc',
'/work/n02/n02/lrpedro/cylc-run/u-bo026-n96-t2/share/data/etc/ancil_ukca/ukca_emiss_BC_fossil.nc',
'/work/n02/n02/lrpedro/cylc-run/u-bo026-n96-t2/share/data/etc/ancil_ukca/ukca_emiss_DMS.nc',
'/work/n02/n02/lrpedro/cylc-run/u-bo026-n96-t2/share/data/etc/ancil_ukca/ukca_emiss_Monoterp.nc',
'/work/n02/n02/lrpedro/cylc-run/u-bo026-n96-t2/share/data/etc/ancil_ukca/ukca_emiss_OC_biofuel.nc',
'/work/n02/n02/lrpedro/cylc-run/u-bo026-n96-t2/share/data/etc/ancil_ukca/ukca_emiss_OC_fossil.nc',
'/work/n02/n02/lrpedro/cylc-run/u-bo026-n96-t2/share/data/etc/ancil_ukca/ukca_emiss_SO2_high.nc',
'/work/n02/n02/lrpedro/cylc-run/u-bo026-n96-t2/share/data/etc/ancil_ukca/ukca_emiss_SO2_low.nc',
'/work/n02/n02/lrpedro/cylc-run/u-bo026-n96-t2/share/data/etc/ancil_ukca/ukca_emiss_SO2_nat.nc',
'/work/n02/n02/lrpedro/cylc-run/u-bo026-n96-t2/share/data/etc/ancil_ukca/ukca_emiss_BC_biomass.nc',
'/work/n02/n02/lrpedro/cylc-run/u-bo026-n96-t2/share/data/etc/ancil_ukca/ukca_emiss_OC_biomass.nc',
ukca_offline_dir='',
ukca_offline_files='/work/n02/n02/lrpedro/cylc-run/u-bo026-n96-t2/share/data/etc/ancil_ukca/ukca_oxid_clim_O3.nc',
'/work/n02/n02/lrpedro/cylc-run/u-bo026-n96-t2/share/data/etc/ancil_ukca/ukca_oxid_clim_OH.nc',
'/work/n02/n02/lrpedro/cylc-run/u-bo026-n96-t2/share/data/etc/ancil_ukca/ukca_oxid_clim_NO3.nc',
'/work/n02/n02/lrpedro/cylc-run/u-bo026-n96-t2/share/data/etc/ancil_ukca/ukca_oxid_clim_H2O2.nc',
'/work/n02/n02/lrpedro/cylc-run/u-bo026-n96-t2/share/data/etc/ancil_ukca/ukca_oxid_clim_HO2.nc',
ukcaaclw='/work/y07/shared/umshared/vn11.6/ctldata/UKCA/radaer/ga3-7/nml_ac_lw',
ukcaacsw='/work/y07/shared/umshared/vn11.6/ctldata/UKCA/radaer/ga3-7/nml_ac_sw',
ukcaanlw='/work/y07/shared/umshared/vn11.6/ctldata/UKCA/radaer/ga3-7/nml_an_lw',
ukcaansw='/work/y07/shared/umshared/vn11.6/ctldata/UKCA/radaer/ga3-7/nml_an_sw',
ukcacrlw='/work/y07/shared/umshared/vn11.6/ctldata/UKCA/radaer/ga3-7/nml_cr_lw',
ukcacrsw='/work/y07/shared/umshared/vn11.6/ctldata/UKCA/radaer/ga3-7/nml_cr_sw',
ukcaprec='/work/y07/shared/umshared/vn11.4/ctldata/spectral/ga7/RADAER_pcalc.ukca',
/
&run_gwd
fbcd=4.00,
gsharp=0.50,
gwd_frc=4.00,
gwd_fsat=0.25,
i_gwd_vn=5,
i_moist=0,
i_ussp_vn=1,
l_add_cgw=.false.,
l_gw_heating=.true.,.true.,.true.,
l_gwd=.true.,
l_smooth=.true.,
l_use_ussp=.true.,
nsigma=2.5,
ussp_launch_factor=1.3000,
wavelstar=4300.00,
/
&run_vera
vera_scheme_flag=0,
/
&run_murk
l_murk=.false.,
/
&run_convection
adapt=7,
amdet_fac=3.00,
anv_opt=0,
anvil_factor=1.0000,
bl_cnv_mix=1,
cape_bottom=5,
cape_min=0.5,
cape_timescale=3600,
cape_top=50,
cape_ts_max=14400.0,
cape_ts_min=0.0,
cca2d_dp_opt=1,
cca2d_md_opt=1,
cca2d_sh_opt=2,
cca_dp_knob=0.10,
cca_md_knob=0.10,
cca_sh_knob=0.20,
ccw_dp_knob=1.00,
ccw_for_precip_opt=4,
ccw_md_knob=1.00,
ccw_sh_knob=1.00,
cldbase_opt_dp=8,
cldbase_opt_md=7,
cldbase_opt_sh=0,
cnv_cold_pools=0,
cnv_wat_load_opt=0,
cpress_term=0.7,
cvdiag_inv=0,
cvdiag_sh_wtest=0.020,
dd_opt=1,
deep_cmt_opt=5,
dil_plume_water_load=0,
eff_dcff=1.0,
eff_dcfl=1.0,
ent_dp_power=1.00,
ent_fac_dp=1.13,
ent_fac_md=0.90,
ent_opt_dp=3,
ent_opt_md=0,
fac_qsat=0.500,
fdet_opt=0,
i_convection_vn=6,
iconv_congestus=0,
iconv_deep=1,
iconv_mid=1,
iconv_shallow=1,
icvdiag=1,
l_3d_cca=.true.,
l_anvil=.true.,
l_ccrad=.true.,
l_cloud_deep=.true.,
l_cmt_heating=.true.,
l_conv_hist=.false.,
l_conv_prog_dq=.false.,
l_conv_prog_dtheta=.false.,
l_conv_prog_flx=.false.,
l_conv_prog_precip=.false.,
l_cv_conserve_check=.true.,
l_eman_dd=.false.,
l_fcape=.false.,
l_jules_flux=.false.,
l_mom=.true.,
l_mom_dd=.false.,
l_murk_conv=.false.,
l_new_dd=.false.,
l_param_conv=.true.,
l_rediagnosis=.false.,
l_safe_conv=.true.,
limit_pert_opt=2,
mdet_opt_dp=1,
mid_cmt_opt=0,
mid_cnv_pmin=10000.00,
midtrig_opt=0,
mparwtr=1.5000e-3,
n_conv_calls=2,
plume_water_load=0,
pr_melt_frz_opt=0,
qlmin=3.0000e-4,
qstice=3.5000e-3,
r_det=0.8000,
rad_cloud_decay_opt=0,
sh_pert_opt=1,
t_melt_snow=274.15,
termconv=1,
tice=263.1500,
tower_factor=1.0000,
tv1_sd_opt=2,
ud_factor=1.0000,
w_cape_limit=0.4,
/
&run_bl
a_ent_shr_nml=5.0,
alpha_cd_in=2.0,1.5,
bl_res_inv=1,
blending_option=0,
calc_prob_of_vis=0.400,
cbl_op=2,
entr_smooth_dec=1,
flux_bc_opt=0,
flux_grad=0,
fric_heating=1,
i_bl_vn=3,
idyndiag=4,
keep_ri_fa=1,
kprof_cu=2,
l_bl_mix_qcf=.true.,
l_conv_tke=.false.,
l_new_kcloudtop=.false.,
l_reset_dec_thres=.true.,
l_use_surf_in_ri=.false.,
lambda_min_nml=40.0,
local_fa=1,
pstb=2.000,
puns=0.500,
relax_sc_over_cu=0,
ritrans=0.1,
sbl_op=6,
sg_orog_mixing=0,
z_nl_bl_levels=6000.0,
zhloc_depth_fac=0.40,
/
&run_precip
ai=2.5700e-02,
ar=1.00,
bi=2.0000e+00,
c_r_correl=0.9,
ci_input=1.43e+01,
cic_input=1.024e+03,
di_input=4.16e-01,
dic_input=1.0,
graupel_option=0,
i_mcr_iter=2,
l_casim=.false.,
l_diff_icevt=.true.,
l_droplet_tpr=.false.,
l_fsd_generator=.true.,
l_het_freezing_rain=.false.,
l_mcr_arcl=.false.,
l_mcr_qrain=.true.,
l_mphys_nonshallow=.false.,
l_orograin=.false.,
l_psd=.true.,
l_rain=.true.,
l_shape_rime=.false.,
l_subgrid_qcl_mp=.true.,
l_warm_new=.true.,
mp_dz_scal=1.0,
sediment_loc=1,
timestep_mp_in=120,
x1r=2.2000e-1,
x2r=2.2000,
/
&run_radiation
aero_bl_levels=50,
aeroscl_csk_clim=5*1.0000,
c113mmr=0,
c114mmr=0,
c11mmr=0,
c12mmr=0,
ch4mmr=0,
co2_mmr=5.24100e-4,
cusack_aero=2,
dp_corr_conv=0,
dp_corr_strat=10000.000,
h_lwbands=9,
h_swbands=6,
hcfc22mmr=0,
hfc125mmr=0.0,
hfc134ammr=0,
i_cloud_representation=2,
i_fsd=2,
i_inhom=2,
i_lw_radstep_perday_prog=24,
i_overlap=3,
i_ozone_int=2,
i_rad_extra_call=0,
i_rad_topography=2,
i_sw_radstep_perday_prog=24,
inhom_cloud_lw=0,
inhom_cloud_sw=0,
l_bs1999_abundances=.false.,
l_consistent_cdnc=.true.,
l_extra_top=.false.,
l_fsd_eff_res=.true.,
l_hydrostatic_mass=.true.,
l_moist_heat_capacity=.false.,
l_quad_t_coast=.true.,
l_rad_deg=.false.,
l_rad_snow_emis=.true.,
l_rad_szacor=.true.,
l_rad_use_clim_volc=.false.,
l_radiation=.true.,
l_sec_var=.false.,
l_t_bdy_surf=.false.,
l_t_land_nosnow=.false.,
l_t_rad_solid=.true.,
l_use_arclbiom=.false.,
l_use_arclblck=.false.,
l_use_arcldlta=.false.,
l_use_arcldust=.false.,
l_use_arclocff=.false.,
l_use_arclsslt=.false.,
l_use_arclsulp=.false.,
l_use_biogenic=.false.,
l_use_bmass_direct=.false.,
l_use_cariolle=.false.,
l_use_dust=.true.,
l_use_liu_spec=.false.,
l_use_nitrate_direct=.false.,
l_use_ocff_direct=.false.,
l_use_seasalt_direct=.false.,
l_use_soot_direct=.false.,
l_use_sulpc_direct=.false.,
n2ommr=0,
o2mmr=0.2314,
rad_mcica_sampling=2,
rad_mcica_sigma=0.750,
so2mmr=0.0,
two_d_fsd_factor=1.5,
/
&run_cloud
allicetdegc=-20.00,
cff_spread_rate=1.00e-5,
dbsdtbs_turb_0=1.50e-4,
falliceshear_method=2,
forced_cu=2,
forced_cu_fac=0.5,
i_cld_area=0,
i_cld_vn=2,
i_pc2_checks_cld_frac_method=2,
i_pc2_conv_coupling=3,
i_pc2_erosion_method=3,
i_rhcpt=2,
ice_fraction_method=1,
ice_width=0.020,
l_add_cca_to_mcica=.true.,
l_ceil_cld_filter=.false.,
l_ensure_min_in_cloud_qcf=.false.,
l_micro_eros=.false.,
l_od_cld_filter=.true.,
l_pc2_check_init=.true.,
l_sharpen_cbh_diags=.false.,
l_simplify_pc2_init_logic=.false.,
l_subgrid_qv=.true.,
rhcrit=0.920,0.918,0.916,0.912,0.908,0.903,0.898,0.891,0.885,0.877,
0.869,0.859,0.850,0.839,0.828,0.815,0.803,68*0.800,
starticetkelvin=263.15,
tau_thresh=0.01,
/
&run_aerosol
l_biomass=.false.,
l_bmass_lbc=.false.,
l_dms_lbc=.false.,
l_nh3_lbc=.false.,
l_nitr_lbc=.false.,
l_nitrate=.false.,
l_ocff=.false.,
l_ocff_lbc=.false.,
l_so2_lbc=.false.,
l_soot=.false.,
l_soot_lbc=.false.,
l_sulpc_so2=.false.,
l_use_bmass_sulpc=.false.,
l_use_nitrate_sulpc=.false.,
l_use_ocff_sulpc=.false.,
l_use_seasalt_pm=.false.,
l_use_seasalt_sulpc=.false.,
/
&lam_config
/
&run_ozone
zon_av_ozone=.true.,
/
&run_free_tracers
l_free_tracer=.false.,
l_pv_tracer=.false.,
l_theta_tracer=.false.,
/
&run_eng_corr
a_energyhours=24,
l_emcorr=.true.,
lemq_print=.true.,
lmass_corr=.false.,
/
&gen_phys_inputs
l_leads_temp_prog=.false.,
l_mr_physics=.false.,
l_new_qsat=.true.,
l_use_methox=.true.,
/
&run_dyn
alpha_relax_type=4,
conserve_dry_mass=3,
eg_vert_damp_coeff=0.05,
eg_vert_damp_profile=4,
eta_s=0.5,
gcr_max_iterations=999,
gcr_precon_option=4,
gcr_tol=1.000e-4,
l_advect_log_theta=.false.,
l_sl_bc_correction=.false.,
l_use_ib_method=.false.,
l_use_mg=.false.,
l_viscosity=.false.,
polar_cap_rows=0,
solver_precision=64,
zlf_conservation_moist_option=0,
zlf_conservation_theta_option=0,
zlf_conservation_tracers_option=0,
zlf_maximum_height=30000.0,
/
&run_dyntest
gcr_diagnostics=1,
l_backwards=.false.,
l_dry=.false.,
l_dynamics_only=.false.,
l_exclude_physics2=.false.,
l_hydrostatic_eg=.false.,
l_idealised_data=.false.,
l_perturb_ic_theta=.false.,
l_trap_uv=.false.,
problem_number=0,
/
&easyaerosol
easyaerosol_dir='unset',
easyaerosol_files=7*'unset',
l_easyaerosol_autoconv=.false.,
l_easyaerosol_cdnc=.false.,
l_easyaerosol_lw=.false.,
l_easyaerosol_sw=.false.,
l_easyaerosol_zonal=.false.,
/
&jules_model_environment
l_jules_parent=1,
/
&jules_surface_types
brd_leaf=1,
c3_grass=3,
c4_grass=4,
ice=9,
lake=7,
ndl_leaf=2,
nnvg=4,
npft=5,
shrub=5,
soil=8,
urban=6,
/
&jules_surface
all_tiles=1,
cor_mo_iter=3,
fd_stab_dep=0,
formdrag=1,
i_modiscopt=1,
iscrntdiag=2,
isrfexcnvgust=1,
l_aggregate=.false.,
l_anthrop_heat_src=.false.,
l_elev_land_ice=.false.,
l_elev_lw_down=.false.,
l_epot_corr=.true.,
l_flake_model=.false.,
l_land_ice_imp=.true.,
l_point_data=.false.,
l_urban2t=.false.,
l_vary_z0m_soil=.false.,
orog_drag_param=0.15,
/
&jules_radiation
i_sea_alb_method=3,
l_albedo_obs=.true.,
l_dolr_land_black=.false.,
l_embedded_snow=.true.,
l_mask_snow_orog=.true.,
l_sea_alb_var_chl=.true.,
l_snow_albedo=.false.,
l_spec_alb_bs=.true.,
l_spec_albedo=.true.,
l_spec_sea_alb=.true.,
wght_alb=0.0,0.5,0.0,0.5,
/
&jules_hydrology
l_hydrology=.true.,
l_pdm=.false.,
l_top=.true.,
l_var_rainfrac=.true.,
l_wetland_unfrozen=.false.,
nfita=30,
/
&jules_rivers
i_river_vn=1,
l_inland=.true.,
l_rivers=.true.,
nstep_rivers=3,
rivers_meander=1.400000,
rivers_speed=0.400000,
/
&jules_overbank
l_riv_overbank=.false.,
/
&jules_sea_seaice
a_chrn_coare=0.0016,
alphac=0.80,
alpham=0.72,
b_chrn_coare=-0.0035,
beta_evap=1.0,
buddy_sea=1,
dtice=2.00,
emis_sea=0.9850,
emis_sice=0.9760,
hcap_sea=0.0,
i_high_wind_drag=0,
iseasurfalg=3,
kappa_seasurf=0.50,
kappai=2.63,
kappai_snow=0.50,
l_10m_neut=.false.,
l_cice_alb=.false.,
l_ctile=.true.,
l_iceformdrag_lupkes=.false.,
l_saldep_freeze=.false.,
l_sice_heatflux=.true.,
l_sice_meltponds=.false.,
l_sice_meltponds_cice=.false.,
l_sice_multilayers=.false.,
l_sice_scattering=.false.,
l_sice_swpen=.false.,
l_ssice_albedo=.false.,
l_tstar_sice_new=.true.,
l_use_dtstar_sea=.false.,
nice=1,
nice_use=1,
seasalinityfactor=0.98,
u10_max_coare=22.0,
u10_min_coare=0.0,
z0h_z0m_miz=0.200,
z0h_z0m_sice=0.200,
z0hsea=4.0e-5,
z0miz=1.00000e-1,
z0sice=5.00000e-4,
/
&jules_soil
dzsoil_io=0.1000,0.2500,0.6500,2.0000,
l_dpsids_dsdz=.true.,
l_holdwater=.false.,
l_soil_sat_down=.true.,
l_vg_soil=.true.,
soilhc_method=2,
/
&jules_vegetation
can_model=4,
can_rad_mod=4,
fsmc_shape=0,
ilayers=10,
l_bvoc_emis=.false.,
l_inferno=.false.,
l_leaf_n_resp_fix=.false.,
l_limit_canhc=.false.,
l_phenol=.false.,
l_scale_resp_pm=.false.,
l_spec_veg_z0=.false.,
l_stem_resp_fix=.false.,
l_trait_phys=.false.,
l_triffid=.false.,
l_vegcan_soilfx=.true.,
l_vegdrag_pft=5*.false.,
photo_model=1,
stomata_model=1,
/
&jules_soil_biogeochem
ch4_substrate=1,
const_ch4_cs=5.41e-12,
const_ch4_npp=9.99e-3,
const_ch4_resps=4.36e-3,
l_ch4_interactive=.false.,
l_ch4_tlayered=.false.,
l_q10=.true.,
l_soil_resp_lev2=.false.,
q10_ch4_cs=3.7,
q10_ch4_npp=1.5,
q10_ch4_resps=1.5,
soil_bgc_model=1,
t0_ch4=273.15,
/
&jules_snow
a_snow_et=2.8e-6,
aicemax=0.78,0.36,
b_snow_et=0.042,
c_snow_et=0.046,
can_clump=1.0,4.0,1.0,1.0,1.0,
cansnowpft=.false.,.true.,.false.,.false.,.false.,
dzsnow=0.04,0.12,0.34,
frac_snow_subl_melt=1,
graupel_options=0,
i_basal_melting_opt=0,
i_grain_growth_opt=0,
i_relayer_opt=0,
i_snow_cond_parm=1,
l_et_metamorph=.true.,
l_snow_infilt=.true.,
l_snow_nocan_hc=.true.,
l_snowdep_surf=.true.,
lai_alb_lim_sn=1.0,1.0,0.1,0.1,0.1,
n_lai_exposed=1.0,1.0,3.0,3.0,2.0,
nsmax=3,
rho_firn_albedo=550.,
rho_snow_et_crit=150.0,
rho_snow_fresh=109.0,
snow_hcon=0.1495,
unload_rate_cnst=5*0.0,
unload_rate_u=0.0,2.31e-06,0.0,0.0,0.0,
/
&run_stochastic
br=0.027,
cdispfac=1.00,
conv_std=1.73,
gwd_std=1.5,
i_pert_theta=0,
l_rp2=.false.,
l_skeb2=.true.,
l_skeb2_conv_disp_mod=.true.,
l_skeb2_psicdisp=.true.,
l_skeb2_psisdisp=.true.,
l_skeb2_velpot=.true.,
l_skebprint=.false.,
l_skebsmooth_adv=.true.,
l_spt=.true.,
l_spt_cfl=.true.,
l_spt_conv=.true.,
l_spt_conv_mom=.false.,
l_spt_gwd=.true.,
l_spt_mse=.true.,
l_spt_qcons=.true.,
l_spt_rad=.true.,
l_spt_rain=.true.,
l_x_eq_sin_x=.false.,
nsmooth=3,
nsmooth_spt=3,
psif_orog_thres=0.5,
rad_std=1.73,
rain_std=1.73,
sd_orog_thres=500.,
sdispfac=2.00,
skeb2_botlev=2,
skeb2_cdisp=4,
skeb2_sdisp=7,
skeb2_toplev=50,
spt_bot_tap_lev=9,
spt_botlev=15,
spt_top_tap_lev=45,
spt_toplev=41,
stph_n1=20,
stph_n2=60,
stphseed=0,
tau_skeb=2.00e+4,
tau_spt=2.00e+4,
tot_backscat=1.00e-4,
/
&run_electric
electric_method=0,
/
&ancilcta
l_amipii_ice_processing=.true.,
l_sstanom=.false.,
nancil_lookupsa=50000,
use_lookup_dates_anc_time_interp=.true.,
/
&items
ancilfilename='',
domain=1,
l_ignore_ancil_grid_check=.false.,
source=3,
stash_req=235,
update_anc=.false.,
/
&items
ancilfilename='/work/n02/n02/lrpedro/cylc-run/u-bo026-n96-t2/share/data/etc/ancil/qrclim.ozone',
domain=1,
interval=1,
l_ignore_ancil_grid_check=.false.,
period=2,
source=4,
stash_req=60,
update_anc=.true.,
/
&items
ancilfilename='/work/n02/n02/lrpedro/cylc-run/u-bo026-n96-t2/share/data/etc/ancil/qrparm.hydtop',
domain=1,
l_ignore_ancil_grid_check=.false.,
source=2,
stash_req=274,275,
update_anc=.false.,
/
&items
ancilfilename='/work/n02/n02/lrpedro/cylc-run/u-bo026-n96-t2/share/data/etc/ancil/qrparm.orog',
domain=1,
l_ignore_ancil_grid_check=.false.,
source=2,
stash_req=5,6,17,18,33,34,35,36,37,
update_anc=.false.,
/
&items
ancilfilename='',
domain=1,
l_ignore_ancil_grid_check=.false.,
source=3,
stash_req=221,
update_anc=.false.,
/
&items
ancilfilename='/work/n02/n02/lrpedro/cylc-run/u-bo026-n96-t2/share/data/etc/ancil/qrclim.seaice',
domain=1,
interval=1,
l_ignore_ancil_grid_check=.false.,
period=3,
source=4,
stash_req=31,32,
update_anc=.true.,
/
&items
ancilfilename='/work/n02/n02/lrpedro/cylc-run/u-bo026-n96-t2/share/data/etc/ancil/qrparm.veg.frac',
domain=1,
l_ignore_ancil_grid_check=.false.,
source=2,
stash_req=216,
update_anc=.false.,
/
&items
ancilfilename='',
domain=1,
l_ignore_ancil_grid_check=.false.,
source=3,
stash_req=222,
update_anc=.false.,
/
&items
ancilfilename='/work/n02/n02/lrpedro/cylc-run/u-bo026-n96-t2/share/data/etc/ancil/qrclim.sea',
domain=1,
interval=5,
l_ignore_ancil_grid_check=.false.,
period=3,
source=4,
stash_req=96,
update_anc=.true.,
/
&items
ancilfilename='/work/n02/n02/lrpedro/cylc-run/u-bo026-n96-t2/share/data/etc/ancil/qrparm.soil',
domain=1,
l_ignore_ancil_grid_check=.false.,
source=2,
stash_req=40,41,43,44,46,47,48,207,220,223,
update_anc=.false.,
/
&items
ancilfilename='/work/n02/n02/lrpedro/cylc-run/u-bo026-n96-t2/share/data/etc/ancil/qrparm.mask',
domain=1,
l_ignore_ancil_grid_check=.false.,
source=2,
stash_req=30,
update_anc=.false.,
/
&items
ancilfilename='',
domain=1,
l_ignore_ancil_grid_check=.false.,
source=8,
stash_req=49,
update_anc=.false.,
/
&items
ancilfilename='/work/n02/n02/lrpedro/cylc-run/u-bo026-n96-t2/share/data/etc/ancil/qrparm.veg.func',
domain=1,
interval=5,
l_ignore_ancil_grid_check=.false.,
period=3,
source=4,
stash_req=217,218,
update_anc=.true.,
/
&items
ancilfilename='',
domain=1,
l_ignore_ancil_grid_check=.false.,
source=3,
stash_req=34150,
update_anc=.false.,
/
&items
ancilfilename='/work/n02/n02/lrpedro/cylc-run/u-bo026-n96-t2/share/data/etc/ancil/qrclim.sulpdms',
domain=1,
interval=5,
l_ignore_ancil_grid_check=.false.,
period=3,
source=4,
stash_req=132,
update_anc=.true.,
/
&items
ancilfilename='/work/n02/n02/lrpedro/cylc-run/u-bo026-n96-t2/share/data/etc/ancil/qrparm.soil.dust',
domain=1,
l_ignore_ancil_grid_check=.false.,
source=2,
stash_req=418,419,420,421,422,423,424,425,426,
update_anc=.false.,
/
&items
ancilfilename='/work/n02/n02/lrpedro/cylc-run/u-bo026-n96-t2/share/data/etc/ancil/qrclim.sst',
domain=1,
interval=1,
l_ignore_ancil_grid_check=.false.,
period=3,
source=4,
stash_req=24,
update_anc=.true.,
/
&items
ancilfilename='/work/n02/n02/lrpedro/cylc-run/u-bo026-n96-t2/share/data/etc/ancil/qrparm.landfrac',
domain=1,
l_ignore_ancil_grid_check=.false.,
source=2,
stash_req=505,
update_anc=.false.,
/
&items
ancilfilename='/work/n02/n02/lrpedro/cylc-run/u-bo026-n96-t2/share/data/etc/ancil/qrclim.land',
domain=1,
interval=5,
l_ignore_ancil_grid_check=.false.,
period=3,
source=2,
stash_req=244,245,
update_anc=.true.,
/
